<routes>
        <vType id="car" accel="0.8" decel="4.5" sigma="0.5" length="5" minGap="5" maxSpeed="16.67" guiShape="passenger"/> 
        
        <route id="right" edges="1i 2o"/>
        <route id="left" edges="2i 1o"/>
        <route id="down" edges="4i 3o"/>
        
     <vehicle id="right_0" type="car" route="right" depart="6" color="1,0,0"/>
     <vehicle id="down_1" type="car" route="down" depart="9" color="0,0,1"/>
     <vehicle id="right_2" type="car" route="right" depart="13" color="1,0,0"/>
     <vehicle id="right_3" type="car" route="right" depart="22" color="1,0,0"/>
     <vehicle id="right_4" type="car" route="right" depart="44" color="1,0,0"/>
     <vehicle id="right_5" type="car" route="right" depart="47" color="1,0,0"/>
     <vehicle id="right_6" type="car" route="right" depart="50" color="1,0,0"/>
     <vehicle id="right_7" type="car" route="right" depart="62" color="1,0,0"/>
     <vehicle id="right_8" type="car" route="right" depart="63" color="1,0,0"/>
     <vehicle id="right_9" type="car" route="right" depart="67" color="1,0,0"/>
     <vehicle id="right_10" type="car" route="right" depart="68" color="1,0,0"/>
     <vehicle id="right_11" type="car" route="right" depart="80" color="1,0,0"/>
     <vehicle id="right_12" type="car" route="right" depart="88" color="1,0,0"/>
     <vehicle id="right_13" type="car" route="right" depart="112" color="1,0,0"/>
     <vehicle id="right_14" type="car" route="right" depart="115" color="1,0,0"/>
     <vehicle id="right_15" type="car" route="right" depart="126" color="1,0,0"/>
     <vehicle id="right_16" type="car" route="right" depart="128" color="1,0,0"/>
     <vehicle id="down_17" type="car" route="down" depart="134" color="0,0,1"/>
     <vehicle id="right_18" type="car" route="right" depart="145" color="1,0,0"/>
     <vehicle id="down_19" type="car" route="down" depart="148" color="0,0,1"/>
     <vehicle id="right_20" type="car" route="right" depart="149" color="1,0,0"/>
     <vehicle id="right_21" type="car" route="right" depart="162" color="1,0,0"/>
     <vehicle id="right_22" type="car" route="right" depart="171" color="1,0,0"/>
     <vehicle id="right_23" type="car" route="right" depart="184" color="1,0,0"/>
     <vehicle id="right_24" type="car" route="right" depart="197" color="1,0,0"/>
     <vehicle id="right_25" type="car" route="right" depart="203" color="1,0,0"/>
     <vehicle id="down_26" type="car" route="down" depart="207" color="0,0,1"/>
     <vehicle id="down_27" type="car" route="down" depart="213" color="0,0,1"/>
     <vehicle id="right_28" type="car" route="right" depart="230" color="1,0,0"/>
     <vehicle id="down_29" type="car" route="down" depart="240" color="0,0,1"/>
     <vehicle id="right_30" type="car" route="right" depart="252" color="1,0,0"/>
     <vehicle id="right_31" type="car" route="right" depart="254" color="1,0,0"/>
     <vehicle id="right_32" type="car" route="right" depart="259" color="1,0,0"/>
     <vehicle id="right_33" type="car" route="right" depart="264" color="1,0,0"/>
     <vehicle id="right_34" type="car" route="right" depart="299" color="1,0,0"/>
     <vehicle id="right_35" type="car" route="right" depart="300" color="1,0,0"/>
     <vehicle id="right_36" type="car" route="right" depart="304" color="1,0,0"/>
     <vehicle id="down_37" type="car" route="down" depart="318" color="0,0,1"/>
     <vehicle id="right_38" type="car" route="right" depart="328" color="1,0,0"/>
     <vehicle id="right_39" type="car" route="right" depart="329" color="1,0,0"/>
     <vehicle id="right_40" type="car" route="right" depart="342" color="1,0,0"/>
     <vehicle id="right_41" type="car" route="right" depart="358" color="1,0,0"/>
     <vehicle id="right_42" type="car" route="right" depart="360" color="1,0,0"/>
     <vehicle id="right_43" type="car" route="right" depart="364" color="1,0,0"/>
     <vehicle id="right_44" type="car" route="right" depart="413" color="1,0,0"/>
     <vehicle id="right_45" type="car" route="right" depart="426" color="1,0,0"/>
     <vehicle id="right_46" type="car" route="right" depart="429" color="1,0,0"/>
     <vehicle id="right_47" type="car" route="right" depart="432" color="1,0,0"/>
     <vehicle id="right_48" type="car" route="right" depart="441" color="1,0,0"/>
     <vehicle id="right_49" type="car" route="right" depart="454" color="1,0,0"/>
     <vehicle id="right_50" type="car" route="right" depart="478" color="1,0,0"/>
     <vehicle id="right_51" type="car" route="right" depart="483" color="1,0,0"/>
     <vehicle id="right_52" type="car" route="right" depart="490" color="1,0,0"/>
     <vehicle id="right_53" type="car" route="right" depart="500" color="1,0,0"/>
     <vehicle id="down_54" type="car" route="down" depart="506" color="0,0,1"/>
     <vehicle id="right_55" type="car" route="right" depart="509" color="1,0,0"/>
     <vehicle id="right_56" type="car" route="right" depart="513" color="1,0,0"/>
     <vehicle id="right_57" type="car" route="right" depart="517" color="1,0,0"/>
     <vehicle id="right_58" type="car" route="right" depart="531" color="1,0,0"/>
     <vehicle id="right_59" type="car" route="right" depart="532" color="1,0,0"/>
     <vehicle id="right_60" type="car" route="right" depart="547" color="1,0,0"/>
     <vehicle id="down_61" type="car" route="down" depart="566" color="0,0,1"/>
     <vehicle id="right_62" type="car" route="right" depart="574" color="1,0,0"/>
     <vehicle id="right_63" type="car" route="right" depart="584" color="1,0,0"/>
     <vehicle id="right_64" type="car" route="right" depart="587" color="1,0,0"/>
     <vehicle id="right_65" type="car" route="right" depart="591" color="1,0,0"/>
     <vehicle id="right_66" type="car" route="right" depart="592" color="1,0,0"/>
     <vehicle id="down_67" type="car" route="down" depart="592" color="0,0,1"/>
     <vehicle id="down_68" type="car" route="down" depart="596" color="0,0,1"/>
     <vehicle id="right_69" type="car" route="right" depart="618" color="1,0,0"/>
     <vehicle id="right_70" type="car" route="right" depart="620" color="1,0,0"/>
     <vehicle id="right_71" type="car" route="right" depart="622" color="1,0,0"/>
     <vehicle id="right_72" type="car" route="right" depart="623" color="1,0,0"/>
     <vehicle id="right_73" type="car" route="right" depart="640" color="1,0,0"/>
     <vehicle id="right_74" type="car" route="right" depart="658" color="1,0,0"/>
     <vehicle id="right_75" type="car" route="right" depart="661" color="1,0,0"/>
     <vehicle id="right_76" type="car" route="right" depart="687" color="1,0,0"/>
     <vehicle id="down_77" type="car" route="down" depart="695" color="0,0,1"/>
     <vehicle id="right_78" type="car" route="right" depart="696" color="1,0,0"/>
     <vehicle id="right_79" type="car" route="right" depart="704" color="1,0,0"/>
     <vehicle id="down_80" type="car" route="down" depart="714" color="0,0,1"/>
     <vehicle id="right_81" type="car" route="right" depart="723" color="1,0,0"/>
     <vehicle id="right_82" type="car" route="right" depart="725" color="1,0,0"/>
     <vehicle id="right_83" type="car" route="right" depart="726" color="1,0,0"/>
     <vehicle id="right_84" type="car" route="right" depart="741" color="1,0,0"/>
     <vehicle id="right_85" type="car" route="right" depart="748" color="1,0,0"/>
     <vehicle id="right_86" type="car" route="right" depart="753" color="1,0,0"/>
     <vehicle id="right_87" type="car" route="right" depart="769" color="1,0,0"/>
     <vehicle id="right_88" type="car" route="right" depart="778" color="1,0,0"/>
     <vehicle id="right_89" type="car" route="right" depart="781" color="1,0,0"/>
     <vehicle id="right_90" type="car" route="right" depart="791" color="1,0,0"/>
     <vehicle id="right_91" type="car" route="right" depart="804" color="1,0,0"/>
     <vehicle id="right_92" type="car" route="right" depart="812" color="1,0,0"/>
     <vehicle id="right_93" type="car" route="right" depart="821" color="1,0,0"/>
     <vehicle id="down_94" type="car" route="down" depart="828" color="0,0,1"/>
     <vehicle id="right_95" type="car" route="right" depart="869" color="1,0,0"/>
     <vehicle id="right_96" type="car" route="right" depart="901" color="1,0,0"/>
     <vehicle id="down_97" type="car" route="down" depart="903" color="0,0,1"/>
     <vehicle id="right_98" type="car" route="right" depart="918" color="1,0,0"/>
     <vehicle id="right_99" type="car" route="right" depart="931" color="1,0,0"/>
     <vehicle id="right_100" type="car" route="right" depart="937" color="1,0,0"/>
     <vehicle id="right_101" type="car" route="right" depart="953" color="1,0,0"/>
     <vehicle id="right_102" type="car" route="right" depart="954" color="1,0,0"/>
     <vehicle id="right_103" type="car" route="right" depart="959" color="1,0,0"/>
     <vehicle id="right_104" type="car" route="right" depart="962" color="1,0,0"/>
     <vehicle id="right_105" type="car" route="right" depart="966" color="1,0,0"/>
     <vehicle id="right_106" type="car" route="right" depart="967" color="1,0,0"/>
     <vehicle id="down_107" type="car" route="down" depart="980" color="0,0,1"/>
     <vehicle id="right_108" type="car" route="right" depart="981" color="1,0,0"/>
     <vehicle id="right_109" type="car" route="right" depart="989" color="1,0,0"/>
     <vehicle id="right_110" type="car" route="right" depart="992" color="1,0,0"/>
     <vehicle id="right_111" type="car" route="right" depart="995" color="1,0,0"/>
     <vehicle id="right_112" type="car" route="right" depart="1002" color="1,0,0"/>
     <vehicle id="right_113" type="car" route="right" depart="1025" color="1,0,0"/>
     <vehicle id="right_114" type="car" route="right" depart="1034" color="1,0,0"/>
     <vehicle id="right_115" type="car" route="right" depart="1051" color="1,0,0"/>
     <vehicle id="right_116" type="car" route="right" depart="1056" color="1,0,0"/>
     <vehicle id="right_117" type="car" route="right" depart="1060" color="1,0,0"/>
     <vehicle id="right_118" type="car" route="right" depart="1061" color="1,0,0"/>
     <vehicle id="right_119" type="car" route="right" depart="1063" color="1,0,0"/>
     <vehicle id="right_120" type="car" route="right" depart="1066" color="1,0,0"/>
     <vehicle id="right_121" type="car" route="right" depart="1076" color="1,0,0"/>
     <vehicle id="down_122" type="car" route="down" depart="1076" color="0,0,1"/>
     <vehicle id="right_123" type="car" route="right" depart="1080" color="1,0,0"/>
     <vehicle id="right_124" type="car" route="right" depart="1081" color="1,0,0"/>
     <vehicle id="right_125" type="car" route="right" depart="1084" color="1,0,0"/>
     <vehicle id="right_126" type="car" route="right" depart="1086" color="1,0,0"/>
     <vehicle id="right_127" type="car" route="right" depart="1090" color="1,0,0"/>
     <vehicle id="right_128" type="car" route="right" depart="1105" color="1,0,0"/>
     <vehicle id="right_129" type="car" route="right" depart="1107" color="1,0,0"/>
     <vehicle id="down_130" type="car" route="down" depart="1110" color="0,0,1"/>
     <vehicle id="right_131" type="car" route="right" depart="1115" color="1,0,0"/>
     <vehicle id="right_132" type="car" route="right" depart="1116" color="1,0,0"/>
     <vehicle id="right_133" type="car" route="right" depart="1119" color="1,0,0"/>
     <vehicle id="right_134" type="car" route="right" depart="1124" color="1,0,0"/>
     <vehicle id="right_135" type="car" route="right" depart="1126" color="1,0,0"/>
     <vehicle id="right_136" type="car" route="right" depart="1159" color="1,0,0"/>
     <vehicle id="right_137" type="car" route="right" depart="1165" color="1,0,0"/>
     <vehicle id="right_138" type="car" route="right" depart="1171" color="1,0,0"/>
     <vehicle id="right_139" type="car" route="right" depart="1192" color="1,0,0"/>
     <vehicle id="right_140" type="car" route="right" depart="1202" color="1,0,0"/>
     <vehicle id="right_141" type="car" route="right" depart="1212" color="1,0,0"/>
     <vehicle id="right_142" type="car" route="right" depart="1213" color="1,0,0"/>
     <vehicle id="right_143" type="car" route="right" depart="1218" color="1,0,0"/>
     <vehicle id="right_144" type="car" route="right" depart="1239" color="1,0,0"/>
     <vehicle id="right_145" type="car" route="right" depart="1258" color="1,0,0"/>
     <vehicle id="right_146" type="car" route="right" depart="1268" color="1,0,0"/>
     <vehicle id="down_147" type="car" route="down" depart="1271" color="0,0,1"/>
     <vehicle id="down_148" type="car" route="down" depart="1281" color="0,0,1"/>
     <vehicle id="right_149" type="car" route="right" depart="1284" color="1,0,0"/>
     <vehicle id="right_150" type="car" route="right" depart="1287" color="1,0,0"/>
     <vehicle id="down_151" type="car" route="down" depart="1293" color="0,0,1"/>
     <vehicle id="right_152" type="car" route="right" depart="1298" color="1,0,0"/>
     <vehicle id="right_153" type="car" route="right" depart="1309" color="1,0,0"/>
     <vehicle id="down_154" type="car" route="down" depart="1318" color="0,0,1"/>
     <vehicle id="right_155" type="car" route="right" depart="1319" color="1,0,0"/>
     <vehicle id="right_156" type="car" route="right" depart="1320" color="1,0,0"/>
     <vehicle id="right_157" type="car" route="right" depart="1324" color="1,0,0"/>
     <vehicle id="right_158" type="car" route="right" depart="1333" color="1,0,0"/>
     <vehicle id="right_159" type="car" route="right" depart="1345" color="1,0,0"/>
     <vehicle id="down_160" type="car" route="down" depart="1367" color="0,0,1"/>
     <vehicle id="right_161" type="car" route="right" depart="1374" color="1,0,0"/>
     <vehicle id="down_162" type="car" route="down" depart="1377" color="0,0,1"/>
     <vehicle id="right_163" type="car" route="right" depart="1383" color="1,0,0"/>
     <vehicle id="right_164" type="car" route="right" depart="1387" color="1,0,0"/>
     <vehicle id="right_165" type="car" route="right" depart="1405" color="1,0,0"/>
     <vehicle id="down_166" type="car" route="down" depart="1412" color="0,0,1"/>
     <vehicle id="right_167" type="car" route="right" depart="1418" color="1,0,0"/>
     <vehicle id="right_168" type="car" route="right" depart="1422" color="1,0,0"/>
     <vehicle id="right_169" type="car" route="right" depart="1425" color="1,0,0"/>
     <vehicle id="right_170" type="car" route="right" depart="1448" color="1,0,0"/>
     <vehicle id="right_171" type="car" route="right" depart="1460" color="1,0,0"/>
     <vehicle id="right_172" type="car" route="right" depart="1462" color="1,0,0"/>
     <vehicle id="right_173" type="car" route="right" depart="1466" color="1,0,0"/>
     <vehicle id="right_174" type="car" route="right" depart="1490" color="1,0,0"/>
     <vehicle id="right_175" type="car" route="right" depart="1495" color="1,0,0"/>
     <vehicle id="right_176" type="car" route="right" depart="1502" color="1,0,0"/>
     <vehicle id="right_177" type="car" route="right" depart="1523" color="1,0,0"/>
     <vehicle id="right_178" type="car" route="right" depart="1526" color="1,0,0"/>
     <vehicle id="right_179" type="car" route="right" depart="1531" color="1,0,0"/>
     <vehicle id="right_180" type="car" route="right" depart="1567" color="1,0,0"/>
     <vehicle id="down_181" type="car" route="down" depart="1570" color="0,0,1"/>
     <vehicle id="right_182" type="car" route="right" depart="1585" color="1,0,0"/>
     <vehicle id="right_183" type="car" route="right" depart="1602" color="1,0,0"/>
     <vehicle id="down_184" type="car" route="down" depart="1603" color="0,0,1"/>
     <vehicle id="down_185" type="car" route="down" depart="1605" color="0,0,1"/>
     <vehicle id="right_186" type="car" route="right" depart="1617" color="1,0,0"/>
     <vehicle id="right_187" type="car" route="right" depart="1628" color="1,0,0"/>
     <vehicle id="right_188" type="car" route="right" depart="1646" color="1,0,0"/>
     <vehicle id="right_189" type="car" route="right" depart="1649" color="1,0,0"/>
     <vehicle id="down_190" type="car" route="down" depart="1656" color="0,0,1"/>
     <vehicle id="right_191" type="car" route="right" depart="1660" color="1,0,0"/>
     <vehicle id="right_192" type="car" route="right" depart="1663" color="1,0,0"/>
     <vehicle id="down_193" type="car" route="down" depart="1664" color="0,0,1"/>
     <vehicle id="down_194" type="car" route="down" depart="1686" color="0,0,1"/>
     <vehicle id="right_195" type="car" route="right" depart="1703" color="1,0,0"/>
     <vehicle id="right_196" type="car" route="right" depart="1706" color="1,0,0"/>
     <vehicle id="right_197" type="car" route="right" depart="1714" color="1,0,0"/>
     <vehicle id="right_198" type="car" route="right" depart="1715" color="1,0,0"/>
     <vehicle id="right_199" type="car" route="right" depart="1719" color="1,0,0"/>
     <vehicle id="right_200" type="car" route="right" depart="1741" color="1,0,0"/>
     <vehicle id="down_201" type="car" route="down" depart="1758" color="0,0,1"/>
     <vehicle id="right_202" type="car" route="right" depart="1759" color="1,0,0"/>
     <vehicle id="right_203" type="car" route="right" depart="1772" color="1,0,0"/>
     <vehicle id="right_204" type="car" route="right" depart="1812" color="1,0,0"/>
     <vehicle id="right_205" type="car" route="right" depart="1818" color="1,0,0"/>
     <vehicle id="down_206" type="car" route="down" depart="1827" color="0,0,1"/>
     <vehicle id="right_207" type="car" route="right" depart="1843" color="1,0,0"/>
     <vehicle id="right_208" type="car" route="right" depart="1856" color="1,0,0"/>
     <vehicle id="down_209" type="car" route="down" depart="1869" color="0,0,1"/>
     <vehicle id="right_210" type="car" route="right" depart="1870" color="1,0,0"/>
     <vehicle id="right_211" type="car" route="right" depart="1878" color="1,0,0"/>
     <vehicle id="right_212" type="car" route="right" depart="1883" color="1,0,0"/>
     <vehicle id="right_213" type="car" route="right" depart="1887" color="1,0,0"/>
     <vehicle id="down_214" type="car" route="down" depart="1900" color="0,0,1"/>
     <vehicle id="right_215" type="car" route="right" depart="1913" color="1,0,0"/>
     <vehicle id="right_216" type="car" route="right" depart="1922" color="1,0,0"/>
     <vehicle id="right_217" type="car" route="right" depart="1933" color="1,0,0"/>
     <vehicle id="down_218" type="car" route="down" depart="1933" color="0,0,1"/>
     <vehicle id="right_219" type="car" route="right" depart="1952" color="1,0,0"/>
     <vehicle id="right_220" type="car" route="right" depart="1953" color="1,0,0"/>
     <vehicle id="right_221" type="car" route="right" depart="1956" color="1,0,0"/>
     <vehicle id="right_222" type="car" route="right" depart="1969" color="1,0,0"/>
     <vehicle id="down_223" type="car" route="down" depart="1976" color="0,0,1"/>
     <vehicle id="right_224" type="car" route="right" depart="1977" color="1,0,0"/>
     <vehicle id="right_225" type="car" route="right" depart="1979" color="1,0,0"/>
     <vehicle id="right_226" type="car" route="right" depart="1980" color="1,0,0"/>
     <vehicle id="right_227" type="car" route="right" depart="1983" color="1,0,0"/>
     <vehicle id="right_228" type="car" route="right" depart="1985" color="1,0,0"/>
     <vehicle id="right_229" type="car" route="right" depart="1997" color="1,0,0"/>
     <vehicle id="right_230" type="car" route="right" depart="2005" color="1,0,0"/>
     <vehicle id="right_231" type="car" route="right" depart="2010" color="1,0,0"/>
     <vehicle id="down_232" type="car" route="down" depart="2016" color="0,0,1"/>
     <vehicle id="down_233" type="car" route="down" depart="2035" color="0,0,1"/>
     <vehicle id="right_234" type="car" route="right" depart="2036" color="1,0,0"/>
     <vehicle id="right_235" type="car" route="right" depart="2038" color="1,0,0"/>
     <vehicle id="right_236" type="car" route="right" depart="2039" color="1,0,0"/>
     <vehicle id="right_237" type="car" route="right" depart="2047" color="1,0,0"/>
     <vehicle id="down_238" type="car" route="down" depart="2050" color="0,0,1"/>
     <vehicle id="right_239" type="car" route="right" depart="2055" color="1,0,0"/>
     <vehicle id="right_240" type="car" route="right" depart="2071" color="1,0,0"/>
     <vehicle id="right_241" type="car" route="right" depart="2072" color="1,0,0"/>
     <vehicle id="right_242" type="car" route="right" depart="2076" color="1,0,0"/>
     <vehicle id="right_243" type="car" route="right" depart="2079" color="1,0,0"/>
     <vehicle id="right_244" type="car" route="right" depart="2098" color="1,0,0"/>
     <vehicle id="right_245" type="car" route="right" depart="2104" color="1,0,0"/>
     <vehicle id="right_246" type="car" route="right" depart="2125" color="1,0,0"/>
     <vehicle id="right_247" type="car" route="right" depart="2130" color="1,0,0"/>
     <vehicle id="right_248" type="car" route="right" depart="2142" color="1,0,0"/>
     <vehicle id="down_249" type="car" route="down" depart="2149" color="0,0,1"/>
     <vehicle id="right_250" type="car" route="right" depart="2152" color="1,0,0"/>
     <vehicle id="right_251" type="car" route="right" depart="2155" color="1,0,0"/>
     <vehicle id="right_252" type="car" route="right" depart="2162" color="1,0,0"/>
     <vehicle id="right_253" type="car" route="right" depart="2175" color="1,0,0"/>
     <vehicle id="down_254" type="car" route="down" depart="2177" color="0,0,1"/>
     <vehicle id="down_255" type="car" route="down" depart="2179" color="0,0,1"/>
     <vehicle id="down_256" type="car" route="down" depart="2181" color="0,0,1"/>
     <vehicle id="down_257" type="car" route="down" depart="2195" color="0,0,1"/>
     <vehicle id="right_258" type="car" route="right" depart="2196" color="1,0,0"/>
     <vehicle id="down_259" type="car" route="down" depart="2225" color="0,0,1"/>
     <vehicle id="right_260" type="car" route="right" depart="2226" color="1,0,0"/>
     <vehicle id="right_261" type="car" route="right" depart="2232" color="1,0,0"/>
     <vehicle id="right_262" type="car" route="right" depart="2246" color="1,0,0"/>
     <vehicle id="down_263" type="car" route="down" depart="2248" color="0,0,1"/>
     <vehicle id="down_264" type="car" route="down" depart="2250" color="0,0,1"/>
     <vehicle id="right_265" type="car" route="right" depart="2266" color="1,0,0"/>
     <vehicle id="right_266" type="car" route="right" depart="2274" color="1,0,0"/>
     <vehicle id="right_267" type="car" route="right" depart="2276" color="1,0,0"/>
     <vehicle id="down_268" type="car" route="down" depart="2300" color="0,0,1"/>
     <vehicle id="right_269" type="car" route="right" depart="2308" color="1,0,0"/>
     <vehicle id="right_270" type="car" route="right" depart="2316" color="1,0,0"/>
     <vehicle id="right_271" type="car" route="right" depart="2321" color="1,0,0"/>
     <vehicle id="right_272" type="car" route="right" depart="2323" color="1,0,0"/>
     <vehicle id="down_273" type="car" route="down" depart="2343" color="0,0,1"/>
     <vehicle id="right_274" type="car" route="right" depart="2347" color="1,0,0"/>
     <vehicle id="right_275" type="car" route="right" depart="2353" color="1,0,0"/>
     <vehicle id="right_276" type="car" route="right" depart="2355" color="1,0,0"/>
     <vehicle id="right_277" type="car" route="right" depart="2360" color="1,0,0"/>
     <vehicle id="right_278" type="car" route="right" depart="2364" color="1,0,0"/>
     <vehicle id="right_279" type="car" route="right" depart="2365" color="1,0,0"/>
     <vehicle id="right_280" type="car" route="right" depart="2368" color="1,0,0"/>
     <vehicle id="right_281" type="car" route="right" depart="2371" color="1,0,0"/>
     <vehicle id="right_282" type="car" route="right" depart="2375" color="1,0,0"/>
     <vehicle id="right_283" type="car" route="right" depart="2418" color="1,0,0"/>
     <vehicle id="right_284" type="car" route="right" depart="2419" color="1,0,0"/>
     <vehicle id="right_285" type="car" route="right" depart="2422" color="1,0,0"/>
     <vehicle id="right_286" type="car" route="right" depart="2433" color="1,0,0"/>
     <vehicle id="right_287" type="car" route="right" depart="2437" color="1,0,0"/>
     <vehicle id="right_288" type="car" route="right" depart="2441" color="1,0,0"/>
     <vehicle id="down_289" type="car" route="down" depart="2468" color="0,0,1"/>
     <vehicle id="right_290" type="car" route="right" depart="2475" color="1,0,0"/>
     <vehicle id="down_291" type="car" route="down" depart="2504" color="0,0,1"/>
     <vehicle id="right_292" type="car" route="right" depart="2505" color="1,0,0"/>
     <vehicle id="right_293" type="car" route="right" depart="2510" color="1,0,0"/>
     <vehicle id="down_294" type="car" route="down" depart="2513" color="0,0,1"/>
     <vehicle id="right_295" type="car" route="right" depart="2516" color="1,0,0"/>
     <vehicle id="right_296" type="car" route="right" depart="2530" color="1,0,0"/>
     <vehicle id="right_297" type="car" route="right" depart="2542" color="1,0,0"/>
     <vehicle id="right_298" type="car" route="right" depart="2551" color="1,0,0"/>
     <vehicle id="right_299" type="car" route="right" depart="2553" color="1,0,0"/>
     <vehicle id="right_300" type="car" route="right" depart="2554" color="1,0,0"/>
     <vehicle id="down_301" type="car" route="down" depart="2561" color="0,0,1"/>
     <vehicle id="right_302" type="car" route="right" depart="2588" color="1,0,0"/>
     <vehicle id="right_303" type="car" route="right" depart="2603" color="1,0,0"/>
     <vehicle id="right_304" type="car" route="right" depart="2608" color="1,0,0"/>
     <vehicle id="right_305" type="car" route="right" depart="2614" color="1,0,0"/>
     <vehicle id="right_306" type="car" route="right" depart="2622" color="1,0,0"/>
     <vehicle id="down_307" type="car" route="down" depart="2622" color="0,0,1"/>
     <vehicle id="right_308" type="car" route="right" depart="2626" color="1,0,0"/>
     <vehicle id="right_309" type="car" route="right" depart="2638" color="1,0,0"/>
     <vehicle id="right_310" type="car" route="right" depart="2657" color="1,0,0"/>
     <vehicle id="right_311" type="car" route="right" depart="2658" color="1,0,0"/>
     <vehicle id="right_312" type="car" route="right" depart="2660" color="1,0,0"/>
     <vehicle id="right_313" type="car" route="right" depart="2662" color="1,0,0"/>
     <vehicle id="right_314" type="car" route="right" depart="2670" color="1,0,0"/>
     <vehicle id="right_315" type="car" route="right" depart="2674" color="1,0,0"/>
     <vehicle id="down_316" type="car" route="down" depart="2677" color="0,0,1"/>
     <vehicle id="right_317" type="car" route="right" depart="2684" color="1,0,0"/>
     <vehicle id="down_318" type="car" route="down" depart="2697" color="0,0,1"/>
     <vehicle id="right_319" type="car" route="right" depart="2705" color="1,0,0"/>
     <vehicle id="right_320" type="car" route="right" depart="2712" color="1,0,0"/>
     <vehicle id="down_321" type="car" route="down" depart="2715" color="0,0,1"/>
     <vehicle id="right_322" type="car" route="right" depart="2716" color="1,0,0"/>
     <vehicle id="right_323" type="car" route="right" depart="2750" color="1,0,0"/>
     <vehicle id="right_324" type="car" route="right" depart="2757" color="1,0,0"/>
     <vehicle id="right_325" type="car" route="right" depart="2763" color="1,0,0"/>
     <vehicle id="right_326" type="car" route="right" depart="2767" color="1,0,0"/>
     <vehicle id="right_327" type="car" route="right" depart="2771" color="1,0,0"/>
     <vehicle id="right_328" type="car" route="right" depart="2772" color="1,0,0"/>
     <vehicle id="right_329" type="car" route="right" depart="2777" color="1,0,0"/>
     <vehicle id="right_330" type="car" route="right" depart="2798" color="1,0,0"/>
     <vehicle id="right_331" type="car" route="right" depart="2800" color="1,0,0"/>
     <vehicle id="right_332" type="car" route="right" depart="2801" color="1,0,0"/>
     <vehicle id="right_333" type="car" route="right" depart="2802" color="1,0,0"/>
     <vehicle id="right_334" type="car" route="right" depart="2812" color="1,0,0"/>
     <vehicle id="right_335" type="car" route="right" depart="2814" color="1,0,0"/>
     <vehicle id="right_336" type="car" route="right" depart="2825" color="1,0,0"/>
     <vehicle id="right_337" type="car" route="right" depart="2833" color="1,0,0"/>
     <vehicle id="down_338" type="car" route="down" depart="2857" color="0,0,1"/>
     <vehicle id="right_339" type="car" route="right" depart="2860" color="1,0,0"/>
     <vehicle id="right_340" type="car" route="right" depart="2864" color="1,0,0"/>
     <vehicle id="right_341" type="car" route="right" depart="2867" color="1,0,0"/>
     <vehicle id="right_342" type="car" route="right" depart="2870" color="1,0,0"/>
     <vehicle id="right_343" type="car" route="right" depart="2875" color="1,0,0"/>
     <vehicle id="right_344" type="car" route="right" depart="2880" color="1,0,0"/>
     <vehicle id="right_345" type="car" route="right" depart="2895" color="1,0,0"/>
     <vehicle id="right_346" type="car" route="right" depart="2902" color="1,0,0"/>
     <vehicle id="right_347" type="car" route="right" depart="2913" color="1,0,0"/>
     <vehicle id="right_348" type="car" route="right" depart="2930" color="1,0,0"/>
     <vehicle id="right_349" type="car" route="right" depart="2933" color="1,0,0"/>
     <vehicle id="down_350" type="car" route="down" depart="2939" color="0,0,1"/>
     <vehicle id="right_351" type="car" route="right" depart="2951" color="1,0,0"/>
     <vehicle id="down_352" type="car" route="down" depart="2954" color="0,0,1"/>
     <vehicle id="right_353" type="car" route="right" depart="2973" color="1,0,0"/>
     <vehicle id="right_354" type="car" route="right" depart="2980" color="1,0,0"/>
     <vehicle id="right_355" type="car" route="right" depart="2983" color="1,0,0"/>
     <vehicle id="down_356" type="car" route="down" depart="2983" color="0,0,1"/>
     <vehicle id="right_357" type="car" route="right" depart="2997" color="1,0,0"/>
</routes>
